#\#CIF1.1
##########################################################################
#               Crystallographic Information Format file 
#               Produced by PyCifRW module
# 
#  This is a CIF file.  CIF has been adopted by the International
#  Union of Crystallography as the standard for data archiving and 
#  transmission.
#
#  For information on this file format, follow the CIF links at
#  http://www.iucr.org
##########################################################################

data_Li1.998Ca1.998Br2
_symmetry_space_group_name_H-M          'P 1'
_cell_length_a                          7.92
_cell_length_b                          3.96
_cell_length_c                          3.96
_cell_angle_alpha                       60.0
_cell_angle_beta                        60.0
_cell_angle_gamma                       60.0
_chemical_name_systematic               'Generated by pymatgen'
_symmetry_Int_Tables_number             1
_chemical_formula_structural            Li1.998Ca1.998Br2
_chemical_formula_sum                   'Li1.998 Ca1.998 Br2'
_cell_volume                            87.8214403429
_cell_formula_units_Z                   1
loop_
  _symmetry_equiv_pos_site_id
  _symmetry_equiv_pos_as_xyz
   1  'x, y, z'
 
loop_
  _atom_site_type_symbol
  _atom_site_label
  _atom_site_symmetry_multiplicity
  _atom_site_fract_x
  _atom_site_fract_y
  _atom_site_fract_z
  _atom_site_attached_hydrogens
  _atom_site_B_iso_or_equiv
  _atom_site_occupancy
   Li  Li1  1  0.125000  0.250000  0.250000  0  .  0.333
   Ca  Ca2  1  0.125000  0.250000  0.250000  0  .  0.333
   Li  Li3  1  0.625000  0.250000  0.250000  0  .  0.333
   Ca  Ca4  1  0.625000  0.250000  0.250000  0  .  0.333
   Li  Li5  1  0.375000  0.750000  0.750000  0  .  0.333
   Ca  Ca6  1  0.375000  0.750000  0.750000  0  .  0.333
   Li  Li7  1  0.875000  0.750000  0.750000  0  .  0.333
   Ca  Ca8  1  0.875000  0.750000  0.750000  0  .  0.333
   Li  Li9  1  0.250000  0.500000  0.500000  0  .  0.333
   Ca  Ca10  1  0.250000  0.500000  0.500000  0  .  0.333
   Li  Li11  1  0.750000  0.500000  0.500000  0  .  0.333
   Ca  Ca12  1  0.750000  0.500000  0.500000  0  .  0.333
   Br  Br13  1  0.000000  0.000000  0.000000  0  .  1
   Br  Br14  1  0.500000  0.000000  0.000000  0  .  1
 
